LTspice 24.1.10 for Windows
Circuit: K:\mai-university7\Draft3.net
Start Time: Mon Oct  6 22:41:33 2025
solver = Normal
Maximum thread count: 8
tnom = 27
temp = 27
method = trap
WARNING: Node n003 is floating.

Direct Newton iteration for .op point succeeded.
Total elapsed time: 0.238 seconds.

Files loaded:
K:\mai-university7\Draft3.net

