LTspice 24.1.10 for Windows
Circuit: C:\mai-university7\Draft4.net
Start Time: Tue Oct  7 16:28:48 2025
solver = Normal
Maximum thread count: 12
tnom = 27
temp = 27
method = trap
WARNING: Node n003 is floating.

Direct Newton iteration for .op point succeeded.
Total elapsed time: 0.357 seconds.

Files loaded:
C:\mai-university7\Draft4.net

