LTspice 24.1.10 for Windows
Circuit: K:\mai-university7\Draft2.net
Start Time: Mon Oct  6 22:34:37 2025
solver = Normal
Maximum thread count: 8
tnom = 27
temp = 27
method = trap
WARNING: Node nc_01 is floating.

Direct Newton iteration for .op point succeeded.
Total elapsed time: 0.244 seconds.

Files loaded:
K:\mai-university7\Draft2.net

